# Int0_opt
# Created by GaussView 6.1.1
#

#
#

@<TRIPOS>MOLECULE
Molecule Name
37 38
SMALL
NO_CHARGES


@<TRIPOS>ATOM
1 Mn1     1.9400    -0.1199     0.0027 Mn
2 C2    -2.2760    -1.2135    -0.1478 C
3 C3    -3.0692    -0.4856    -1.0490 C
4 H4    -2.6071     0.2221    -1.7291 H
5 C5    -4.4507    -0.6766    -1.0736 C
6 H6    -5.0574    -0.1153    -1.7790 H
7 C7    -5.0525    -1.5837    -0.1945 C
8 H8    -6.1299    -1.7250    -0.2121 H
9 C9    -4.2663    -2.3097     0.7054 C
10 H10    -4.7287    -3.0127     1.3929 H
11 C11    -2.8812    -2.1333     0.7245 C
12 H12    -2.2734    -2.6913     1.4321 H
13 C13    -1.5204     1.6526     1.2078 C
14 H14    -1.5887     0.9152     2.0025 H
15 C15    -0.8120     1.3437     0.0396 C
16 C16    -0.6935     2.2972    -0.9795 C
17 H17    -0.1206     2.0538    -1.8703 H
18 C18    -1.3089     3.5428    -0.8431 C
19 H19    -1.2182     4.2762    -1.6402 H
20 C20    -2.0325     3.8485     0.3154 C
21 H21    -2.5066     4.8205     0.4222 H
22 C22    -2.1320     2.9018     1.3400 C
23 H23    -2.6825     3.1351     2.2477 H
24 C24    -0.7986    -1.0421    -0.1212 C
25 C25     1.3858    -2.0892    -0.0605 C
26 C26     3.6969    -0.5951     0.1031 C
27 C27     1.9619    -0.2115    -1.8495 C
28 C28     2.3098     1.6905     0.0540 C
29 C29     1.7423    -0.2530     1.8440 C
30 N30    -0.1487     0.0903    -0.1026 N
31 N31    -0.0405    -2.1755    -0.1082 N
32 H32    -0.4756    -3.0872    -0.2299 H
33 O33     2.0099    -3.1382    -0.0822 O
34 O34     4.8000    -0.9249     0.1656 O
35 O35     1.9397    -0.2971    -2.9973 O
36 O36     2.5900     2.8085     0.0950 O
37 O37     1.5850    -0.3606     2.9790 O
@<TRIPOS>BOND
1 1 25 1
2 1 26 1
3 1 27 1
4 1 28 1
5 1 29 1
6 2 3 Ar
7 2 11 Ar
8 2 24 1
9 3 4 1
10 3 5 Ar
11 5 6 1
12 5 7 Ar
13 7 8 1
14 7 9 Ar
15 9 10 1
16 9 11 Ar
17 11 12 1
18 13 14 1
19 13 15 Ar
20 13 22 Ar
21 15 16 Ar
22 15 30 1
23 16 17 1
24 16 18 Ar
25 18 19 1
26 18 20 Ar
27 20 21 1
28 20 22 Ar
29 22 23 1
30 24 30 2
31 24 31 Ar
32 25 31 1
33 25 33 2
34 26 34 3
35 27 35 3
36 28 36 3
37 29 37 3
38 31 32 1
